Circuit: * C:\Users\Lyrtron8\Desktop\Mariano\SWCCA_Project\SWCCA_2MHz\SPICE\bridge_block.asc

Direct Newton iteration for .op point succeeded.
Heightened Def Con from 5.20134e-014 to 2.93021e-010

Date: Mon Sep 17 14:26:46 2018
Total elapsed time: 0.104 seconds.

tnom = 27
temp = 27
method = modified trap
totiter = 2667
traniter = 2651
tranpoints = 1209
accept = 1170
rejected = 40
matrix size = 14
fillins = 0
solver = Normal
Matrix Compiler1:      52 opcodes  0.3/[0.2]/0.2
Matrix Compiler2: off  [0.2]/0.3/0.3

