Circuit: * C:\Users\Lyrtron8\Desktop\Mariano\SWCCA_Project\SWCCA_2MHz\SPICE\Draft1.asc

Direct Newton iteration for .op point succeeded.

Date: Tue Sep 18 09:48:50 2018
Total elapsed time: 0.078 seconds.

tnom = 27
temp = 27
method = modified trap
totiter = 2091
traniter = 2088
tranpoints = 1045
accept = 1045
rejected = 0
matrix size = 5
fillins = 0
solver = Normal
Matrix Compiler1:       7 opcodes  0.0/[0.0]/0.0
Matrix Compiler2: 301 bytes object code size  0.0/0.1/[0.0]

