Circuit: * C:\Users\Lyrtron8\Desktop\Mariano\SWCCA_Project\SWCCA_2MHz\SPICE\regulator.asc

WARNING: Node +5V is floating.

Direct Newton iteration for .op point succeeded.

Date: Tue Sep 18 11:51:59 2018
Total elapsed time: 0.063 seconds.

tnom = 27
temp = 27
method = modified trap
totiter = 2085
traniter = 2082
tranpoints = 1042
accept = 1042
rejected = 0
matrix size = 5
fillins = 0
solver = Normal
Matrix Compiler1: off  [0.0]/0.0/0.0
Matrix Compiler2: off  [0.0]/0.1/0.1

